/*--------------------------------*- C++ -*----------------------------------*\
| =========                 |                                                 |
| \\      /  F ield         | OpenFOAM: The Open Source CFD Toolbox           |
|  \\    /   O peration     | Version:  v2206                                 |
|   \\  /    A nd           | Website:  www.openfoam.com                      |
|    \\/     M anipulation  |                                                 |
\*---------------------------------------------------------------------------*/
FoamFile
{
    version     2.0;
    format      ascii;
    class       dictionary;
    object      fvOptions;
}
// * * * * * * * * * * * * * * * * * * * * * * * * * * * * * * * * * * * * * //

propeller1
{
    type            propeller;
    
    fields          (U); // Names of fields on which to apply source
    
    active          true;
    
    propellerModel bladeElementModel;
    
    rotorGeometry
    {
        selectionMode   geometry;
        
        radius          0.5;
        center          (0 0 0);
        direction       (0 1 1);
        
        closestCenter   true;
        createSelection false;
    }
    bladeModel
    {
        sections
        (
            //(airfoilName ( radialPos[m] chord[m] torsion [ยบ] sweep [ยบ] )
            (simpleAnalitic (0 0.3 10 0))
            (simpleAnalitic (1 0.2 10 0))
            (simpleAnalitic (2 0.15 20 30))           
        );
    }
    airfoils
    {
        simpleAnalitic
        {
            type        simpleAirfoil;
            cl0         0;
            cd0         0.01;
            cl_alfa     5;
            K           0.0018;
        }
        simpleAnalitic2
        {
            type        simpleAirfoil;
            cl0         0.5;
            cd0         0.01;
            cl_alfa     5;
            K           0.0018;
        }
    }
        
}


// ************************************************************************* //
